@<TRIPOS>MOLECULE_extra_text
RES
11 10 1 0 1
SMALL
USER_CHARGES
@<TRIPOS>CRYSIN
    7.2000     9.3380     6.6460    90.0000    90.0000    90.0000  1  1
@<TRIPOS>ATOM
       1 C           -0.0000    -1.4000    -0.0000 C      1 RES       -0.000000
       2 H           -1.1000    -1.4000     0.0000 H      1 RES        0.000000
       3 H            1.1000    -1.4000    -0.0000 H      1 RES        0.000000
       4 C            0.0000     0.0000     0.0000 C      1 RES       -0.000000
       5 H            1.0700     0.0000     0.0000 H      1 RES        0.000000
       6 H           -0.3570     0.7690     0.6530 H      1 RES        0.000000
       7 H           -0.3570     0.1810    -0.9930 H      1 RES        0.000000
       8 C            0.0000    -2.8000    -0.0000 C      1 RES       -0.000000
       9 H           -1.0700    -2.8000    -0.0000 H      1 RES        0.000000
      10 H            0.3570    -3.5690     0.6530 H      1 RES        0.000000
      11 H            0.3570    -2.9810    -0.9930 H      1 RES        0.000000
@<TRIPOS>BOND
       1        1        4 1
       2        2        1 1
       3        3        1 1
       4        4        5 1
       5        4        7 1
       6        4        6 1
       7        8       11 1
       8        8        1 1
       9        8        9 1
      10       10        8 1
@<TRIPOS>SUBSTRUCTURE
       1 RES             1 RESIDUE    0 **** ROOT      0
@<TRIPOS>FF_PBC
    7.2000     9.3380     6.6460    90.0000    90.0000    90.0000  1  1
