@<TRIPOS>MOLECULE
RES
8 7 1 0 1
SMALL
USER_CHARGES
@<TRIPOS>CRYSIN
    8.2693     7.9100     6.6460    90.0000    90.0000    90.0000  1  1
@<TRIPOS>ATOM
       1 C            0.0000     0.0000     0.0000 Carbon             1 RES        0.000000
       2 O           -0.0000     1.2400     0.0000 O             1 RES       -0.000000
       3 O           -1.2124    -0.7000     0.0000 O             1 RES       -0.000000
       4 H           -1.2124    -1.6700     0.0000 H             1 RES        0.000000
       5 C            1.2124    -0.7000     0.0000 C             1 RES       -0.000000
       6 H            0.6774    -1.6266    -0.0000 H             1 RES        0.000000
       7 H            2.0569    -0.7753     0.6530 H             1 RES        0.000000
       8 H            1.5477    -0.4813    -0.9930 H             1 RES        0.000000
@<TRIPOS>BOND
       1        2        1 1
       2        3        1 1
       3        4        3 1
       4        5        1 1
       5        6        5 1
       6        7        5 1
       7        8        5 1
@<TRIPOS>SUBSTRUCTURE
       1 RES             1 RESIDUE    0 **** ROOT      0
