@<TRIPOS>MOLECULE
TMP
    6    5    1    0    0
SMALL
NO_CHARGES
****
Energy = 0

@<TRIPOS>ATOM
      1  C          0.4688    0.1214    0.2103    C    1  TMP        0.000000
      2  C0        -1.0312    0.1214    0.2103    C    1  TMP        0.000000
      3  H          0.7944   -0.8241    0.2103    H    1  TMP        0.000000
      4  H0         0.7944    0.5942   -0.6086    H    1  TMP        0.000000
      5  H1        -1.7812   -0.5281   -0.9147    H    1  TMP        0.000000
      6  H2        -1.5312    0.5544    0.9603    H    1  TMP        0.000000
@<TRIPOS>BOND
    1     1     2  1
    2     1     3  1
    3     1     4  1
    4     2     6  1
    5     2     5  1

@<TRIPOS>SUBSTRUCTURE
1 ****        1 TEMP                        0 ****  **** 0 ROOT

#generated by VMD
